resultados/Relatorios/IEEE30-2/IEEE30-2-report.txt
April 19, 2023


relatório do sistema IEEE30-2

solução do fluxo de potência via método do fluxo de potência continuado

opções de controle ativadas: QLIM SVCs 

opções de relatório ativadas: RBARRA 



vv relatório de convergência vv

       |  FREQ  |  ERROR  | BARRA |  ERROR  | BARRA |  ERROR  | BARRA |
| ITER |    Hz  |     MW  |   NUM |   MVAr  |   NUM |   CTRL  |   NUM |
-----------------------------------------------------------------------
|  1   | 60.000 | 92.801  |   5   | 46.218  |   1   |  0.000  |   1   |
|  2   | 60.000 |  5.095  |   2   | 16.234  |   2   |  0.000  |   1   |
|  3   | 60.000 |  0.016  |   6   |  0.046  |   3   |  0.000  |   2   |
|  4   | 60.000 |  0.000  |   4   |  0.000  |   3   |  0.000  |   2   |
-----------------------------------------------------------------------

 * * * * SISTEMA CONVERGENTE * * * * 

       |  FREQ  |  ERROR  | BARRA |  ERROR  | BARRA |  ERROR  | BARRA |
| ITER |    Hz  |     MW  |   NUM |   MVAr  |   NUM |   CTRL  |   NUM |
-----------------------------------------------------------------------
|  4   | 60.000 |  0.000  |   4   |  0.000  |   3   |  0.000  |   2   |
-----------------------------------------------------------------------



vv relatório de barras vv área 1 vv

|          BARRA           |         TENSAO       |        GERACAO      |         CARGA       |   SHUNT  |
| NUM |     NOME     |  T  |    MOD    |    ANG   |    MW    |   MVAr   |    MW    |   MVAr   |    MVAr  |
----------------------------------------------------------------------------------------------------------
|  1  | Glen-Lyn-132 |  2  |   1.060   |  +0.00   | 260.889  | -16.798  |  0.000   |  0.000   |  0.000   |
----------------------------------------------------------------------------------------------------------
|  2  | Claytor--132 | -1  |   1.043   |  -5.35   |  40.000  |  48.875  |  51.663  |  30.236  |  0.000   |
----------------------------------------------------------------------------------------------------------
|  3  | Kumis----132 |  0  |   1.021   |  -7.54   |  -0.000  |  -0.000  |  5.714   |  2.857   |  0.000   |
----------------------------------------------------------------------------------------------------------
|  4  |   Hancock    |  0  |   1.012   |  -9.29   |  0.000   |  -0.000  |  18.094  |  3.809   |  0.000   |
----------------------------------------------------------------------------------------------------------
|  5  | Fieldale-132 | -1  |   1.010   |  -14.16  |  0.000   |  36.624  | 224.271  |  45.235  |  0.000   |
----------------------------------------------------------------------------------------------------------
|  6  | Roanoke--132 |  0  |   1.011   |  -11.07  |  -0.000  |  -0.000  |  0.000   |  0.000   |  0.000   |
----------------------------------------------------------------------------------------------------------
|  7  | Blaine---132 |  0  |   1.003   |  -12.87  |  0.000   |  -0.000  |  54.282  |  25.951  |  0.000   |
----------------------------------------------------------------------------------------------------------
|  8  | Reusens--132 | -1  |   1.010   |  -11.81  |  0.000   |  35.319  |  71.424  |  71.424  |  0.000   |
----------------------------------------------------------------------------------------------------------
|  9  | Roanoke--1.0 |  0  |   1.053   |  -14.12  |  0.000   |  -0.000  |  0.000   |  0.000   |  0.000   |
----------------------------------------------------------------------------------------------------------
| 10  | Roanoke---33 |  0  |   1.050   |  -15.70  |  0.000   |  0.000   |  13.809  |  4.762   |  13.771  |
----------------------------------------------------------------------------------------------------------

|          BARRA           |         TENSAO       |        GERACAO      |         CARGA       |   SHUNT  |
| NUM |     NOME     |  T  |    MOD    |    ANG   |    MW    |   MVAr   |    MW    |   MVAr   |    MVAr  |
----------------------------------------------------------------------------------------------------------
| 11  | Roanoke---11 | -1  |   1.082   |  -14.12  |  0.000   |  14.921  |  0.000   |  0.000   |  0.000   |
----------------------------------------------------------------------------------------------------------
| 12  | Hancock---33 |  0  |   1.059   |  -14.90  |  0.000   |  0.000   |  26.665  |  17.856  |  0.000   |
----------------------------------------------------------------------------------------------------------
| 13  | Hancock---11 | -1  |   1.071   |  -14.90  |  0.000   |  9.384   |  0.000   |  0.000   |  0.000   |
----------------------------------------------------------------------------------------------------------
| 14  | Barra14---33 |  0  |   1.044   |  -15.80  |  -0.000  |  -0.000  |  14.761  |  3.809   |  0.000   |
----------------------------------------------------------------------------------------------------------
| 15  | Barra15---33 |  0  |   1.040   |  -15.90  |  0.000   |  0.000   |  19.523  |  5.952   |  0.000   |
----------------------------------------------------------------------------------------------------------
| 16  | Barra16---33 |  0  |   1.047   |  -15.51  |  0.000   |  0.000   |  8.333   |  4.285   |  0.000   |
----------------------------------------------------------------------------------------------------------
| 17  | Barra17---33 |  0  |   1.044   |  -15.86  |  0.000   |  0.000   |  21.427  |  13.809  |  0.000   |
----------------------------------------------------------------------------------------------------------
| 18  | Barra18---33 |  0  |   1.032   |  -16.53  |  -0.000  |  -0.000  |  7.619   |  2.143   |  0.000   |
----------------------------------------------------------------------------------------------------------
| 19  | Barra19---33 |  0  |   1.030   |  -16.71  |  -0.000  |  0.261   |  22.618  |  8.095   |  0.000   |
----------------------------------------------------------------------------------------------------------
| 20  | Barra20---33 |  0  |   1.034   |  -16.52  |  0.000   |  -0.000  |  5.238   |  1.667   |  0.000   |
----------------------------------------------------------------------------------------------------------

|          BARRA           |         TENSAO       |        GERACAO      |         CARGA       |   SHUNT  |
| NUM |     NOME     |  T  |    MOD    |    ANG   |    MW    |   MVAr   |    MW    |   MVAr   |    MVAr  |
----------------------------------------------------------------------------------------------------------
| 21  | Barra21---33 |  0  |   1.039   |  -16.19  |  -0.000  |  4.002   |  41.664  |  26.665  |  0.000   |
----------------------------------------------------------------------------------------------------------
| 22  | Barra22---33 |  0  |   1.039   |  -16.17  |  0.000   |  0.000   |  0.000   |  0.000   |  0.000   |
----------------------------------------------------------------------------------------------------------
| 23  | Barra23---33 |  0  |   1.031   |  -16.31  |  0.000   |  0.000   |  7.619   |  3.809   |  0.000   |
----------------------------------------------------------------------------------------------------------
| 24  | Barra24---33 |  0  |   1.027   |  -16.50  |  -0.000  |  -0.000  |  20.713  |  15.951  |  2.776   |
----------------------------------------------------------------------------------------------------------
| 25  | Barra25---33 |  0  |   1.022   |  -16.07  |  0.000   |  0.000   |  0.000   |  0.000   |  0.000   |
----------------------------------------------------------------------------------------------------------
| 26  | Barra26---33 |  0  |   1.005   |  -16.48  |  0.000   |  0.000   |  8.333   |  5.476   |  0.000   |
----------------------------------------------------------------------------------------------------------
| 27  | Cloverdle-33 |  0  |   1.028   |  -15.54  |  -0.000  |  -0.000  |  0.000   |  0.000   |  0.000   |
----------------------------------------------------------------------------------------------------------
| 28  | Cloverdle132 |  0  |   1.008   |  -11.70  |  0.000   |  -0.000  |  0.000   |  0.000   |  0.000   |
----------------------------------------------------------------------------------------------------------
| 29  | Barra29---33 |  0  |   1.010   |  -16.80  |  0.000   |  0.000   |  5.714   |  2.143   |  0.000   |
----------------------------------------------------------------------------------------------------------
| 30  | Barra30---33 |  0  |   1.000   |  -17.71  |  -0.000  |  0.842   |  25.236  |  4.524   |  0.000   |
----------------------------------------------------------------------------------------------------------



vv relatório de execução do fluxo de potência continuado vv

              | INCREMENTO DE CARGA |     CARGA TOTAL     |         PASSO        |
| CASO | ITER |  ATIVA   |  REATIVA |  ATIVA   |  REATIVA | VARIÁVEL | VALOR [%] |
----------------------------------------------------------------------------------
|  0   |  4   |   0.0    |   0.0    | 283.400  | 126.200  |  lambda  |    5.0    |
----------------------------------------------------------------------------------
|  1   |  4   |  5.000   |  5.000   | 297.570  | 132.510  |  lambda  |   +5.00   |
----------------------------------------------------------------------------------
|  2   |  4   |  10.000  |  10.000  | 311.740  | 138.820  |  lambda  |   +5.00   |
----------------------------------------------------------------------------------
|  3   |  4   |  15.000  |  15.000  | 325.910  | 145.130  |  lambda  |   +5.00   |
----------------------------------------------------------------------------------
|  4   |  4   |  20.000  |  20.000  | 340.080  | 151.440  |  lambda  |   +5.00   |
----------------------------------------------------------------------------------

              | INCREMENTO DE CARGA |     CARGA TOTAL     |         PASSO        |
| CASO | ITER |  ATIVA   |  REATIVA |  ATIVA   |  REATIVA | VARIÁVEL | VALOR [%] |
----------------------------------------------------------------------------------
|  5   |  4   |  25.000  |  25.000  | 354.250  | 157.750  |  lambda  |   +5.00   |
----------------------------------------------------------------------------------
|  6   |  4   |  30.000  |  30.000  | 368.420  | 164.060  |  lambda  |   +5.00   |
----------------------------------------------------------------------------------
|  7   |  4   |  35.000  |  35.000  | 382.590  | 170.370  |  lambda  |   +5.00   |
----------------------------------------------------------------------------------
|  8   |  4   |  40.000  |  40.000  | 396.760  | 176.680  |  lambda  |   +5.00   |
----------------------------------------------------------------------------------
|  9   |  4   |  45.000  |  45.000  | 410.930  | 182.990  |  lambda  |   +5.00   |
----------------------------------------------------------------------------------

              | INCREMENTO DE CARGA |     CARGA TOTAL     |         PASSO        |
| CASO | ITER |  ATIVA   |  REATIVA |  ATIVA   |  REATIVA | VARIÁVEL | VALOR [%] |
----------------------------------------------------------------------------------
|  10  |  4   |  50.000  |  50.000  | 425.100  | 189.300  |  lambda  |   +5.00   |
----------------------------------------------------------------------------------
|  11  |  4   |  55.000  |  55.000  | 439.270  | 195.610  |  lambda  |   +5.00   |
----------------------------------------------------------------------------------
|  12  |  4   |  60.000  |  60.000  | 453.440  | 201.920  |  lambda  |   +5.00   |
----------------------------------------------------------------------------------
|  13  |  4   |  65.000  |  65.000  | 467.610  | 208.230  |  lambda  |   +5.00   |
----------------------------------------------------------------------------------
|  14  |  4   |  70.000  |  70.000  | 481.780  | 214.540  |  lambda  |   +5.00   |
----------------------------------------------------------------------------------

              | INCREMENTO DE CARGA |     CARGA TOTAL     |         PASSO        |
| CASO | ITER |  ATIVA   |  REATIVA |  ATIVA   |  REATIVA | VARIÁVEL | VALOR [%] |
----------------------------------------------------------------------------------
|  15  |  4   |  75.000  |  75.000  | 495.950  | 220.850  |  lambda  |   +5.00   |
----------------------------------------------------------------------------------
|  16  |  4   |  80.000  |  80.000  | 510.120  | 227.160  |  lambda  |   +5.00   |
----------------------------------------------------------------------------------
|  17  |  4   |  85.000  |  85.000  | 524.290  | 233.470  |  lambda  |   +5.00   |
----------------------------------------------------------------------------------
|  18  |  4   |  90.000  |  90.000  | 538.460  | 239.780  |  lambda  |   +5.00   |
----------------------------------------------------------------------------------
|  19  |  4   |  95.000  |  95.000  | 552.630  | 246.090  |  lambda  |   +5.00   |
----------------------------------------------------------------------------------

              | INCREMENTO DE CARGA |     CARGA TOTAL     |         PASSO        |
| CASO | ITER |  ATIVA   |  REATIVA |  ATIVA   |  REATIVA | VARIÁVEL | VALOR [%] |
----------------------------------------------------------------------------------
|  20  |  4   | 100.000  | 100.000  | 566.800  | 252.400  |  lambda  |   +5.00   |
----------------------------------------------------------------------------------
|  21  |  4   | 105.000  | 105.000  | 580.970  | 258.710  |  lambda  |   +5.00   |
----------------------------------------------------------------------------------
|  22  |  4   | 110.000  | 110.000  | 595.140  | 265.020  |  lambda  |   +5.00   |
----------------------------------------------------------------------------------
|  23  |  4   | 115.000  | 115.000  | 609.310  | 271.330  |  lambda  |   +5.00   |
----------------------------------------------------------------------------------
|  24  |  5   | 120.000  | 120.000  | 623.480  | 277.640  |  lambda  |   +5.00   |
----------------------------------------------------------------------------------

              | INCREMENTO DE CARGA |     CARGA TOTAL     |         PASSO        |
| CASO | ITER |  ATIVA   |  REATIVA |  ATIVA   |  REATIVA | VARIÁVEL | VALOR [%] |
----------------------------------------------------------------------------------
|  25  |  5   | 125.000  | 125.000  | 637.650  | 283.950  |  lambda  |   +5.00   |
----------------------------------------------------------------------------------
|  26  |  5   | 130.000  | 130.000  | 651.820  | 290.260  |  lambda  |   +5.00   |
----------------------------------------------------------------------------------
|  27  |  5   | 135.000  | 135.000  | 665.990  | 296.570  |  lambda  |   +5.00   |
----------------------------------------------------------------------------------
|  28  |  5   | 136.250  | 136.250  | 669.533  | 298.148  |  lambda  |   +1.25   |
----------------------------------------------------------------------------------
|  29  |  4   | 136.406  | 136.406  | 669.975  | 298.345  |  lambda  |   +0.16   |
----------------------------------------------------------------------------------

              | INCREMENTO DE CARGA |     CARGA TOTAL     |         PASSO        |
| CASO | ITER |  ATIVA   |  REATIVA |  ATIVA   |  REATIVA | VARIÁVEL | VALOR [%] |
----------------------------------------------------------------------------------
|  30  |  4   | 136.563  | 136.563  | 670.418  | 298.542  |  lambda  |   +0.16   |
----------------------------------------------------------------------------------
|  31  |  4   | 136.719  | 136.719  | 670.861  | 298.739  |  lambda  |   +0.16   |
----------------------------------------------------------------------------------
|  32  |  4   | 136.875  | 136.875  | 671.304  | 298.936  |  lambda  |   +0.16   |
----------------------------------------------------------------------------------
|  33  |  4   | 137.031  | 137.031  | 671.747  | 299.133  |  lambda  |   +0.16   |
----------------------------------------------------------------------------------
|  34  |  4   | 137.188  | 137.188  | 672.189  | 299.331  |  lambda  |   +0.16   |
----------------------------------------------------------------------------------

              | INCREMENTO DE CARGA |     CARGA TOTAL     |         PASSO        |
| CASO | ITER |  ATIVA   |  REATIVA |  ATIVA   |  REATIVA | VARIÁVEL | VALOR [%] |
----------------------------------------------------------------------------------
|  35  |  4   | 137.344  | 137.344  | 672.632  | 299.528  |  lambda  |   +0.16   |
----------------------------------------------------------------------------------
|  36  |  4   | 137.500  | 137.500  | 673.075  | 299.725  |  lambda  |   +0.16   |
----------------------------------------------------------------------------------
|  37  |  4   | 137.656  | 137.656  | 673.518  | 299.922  |  lambda  |   +0.16   |
----------------------------------------------------------------------------------
|  38  |  4   | 137.812  | 137.812  | 673.961  | 300.119  |  lambda  |   +0.16   |
----------------------------------------------------------------------------------
|  39  |  4   | 137.969  | 137.969  | 674.403  | 300.317  |  lambda  |   +0.16   |
----------------------------------------------------------------------------------

              | INCREMENTO DE CARGA |     CARGA TOTAL     |         PASSO        |
| CASO | ITER |  ATIVA   |  REATIVA |  ATIVA   |  REATIVA | VARIÁVEL | VALOR [%] |
----------------------------------------------------------------------------------
|  40  |  4   | 138.008  | 138.008  | 674.514  | 300.366  |  lambda  |   +0.04   |
----------------------------------------------------------------------------------
|  41  |  4   | 138.047  | 138.047  | 674.625  | 300.415  |  lambda  |   +0.04   |
----------------------------------------------------------------------------------
|  42  |  3   | 138.057  | 138.057  | 674.653  | 300.427  |  lambda  |   +0.01   |
----------------------------------------------------------------------------------
|  43  |  3   | 138.066  | 138.066  | 674.680  | 300.440  |  lambda  |   +0.01   |
----------------------------------------------------------------------------------
|  44  |  3   | 138.068  | 138.068  | 674.684  | 300.441  |  lambda  |   +0.00   |
----------------------------------------------------------------------------------

              | INCREMENTO DE CARGA |     CARGA TOTAL     |         PASSO        |
| CASO | ITER |  ATIVA   |  REATIVA |  ATIVA   |  REATIVA | VARIÁVEL | VALOR [%] |
----------------------------------------------------------------------------------
|  45  |  3   | 138.069  | 138.069  | 674.687  | 300.443  |  lambda  |   +0.00   |
----------------------------------------------------------------------------------
|  46  |  3   | 138.070  | 138.070  | 674.691  | 300.444  |  lambda  |   +0.00   |
----------------------------------------------------------------------------------
|  47  |  3   | 138.071  | 138.071  | 674.694  | 300.446  |  lambda  |   +0.00   |
----------------------------------------------------------------------------------
|  48  |  3   | 138.073  | 138.073  | 674.697  | 300.448  |  lambda  |   +0.00   |
----------------------------------------------------------------------------------
|  49  |  3   | 138.074  | 138.074  | 674.701  | 300.449  |  lambda  |   +0.00   |
----------------------------------------------------------------------------------

              | INCREMENTO DE CARGA |     CARGA TOTAL     |         PASSO        |
| CASO | ITER |  ATIVA   |  REATIVA |  ATIVA   |  REATIVA | VARIÁVEL | VALOR [%] |
----------------------------------------------------------------------------------
|  50  |  3   | 138.075  | 138.075  | 674.704  | 300.451  |  lambda  |   +0.00   |
----------------------------------------------------------------------------------
|  51  |  3   | 138.076  | 138.076  | 674.708  | 300.452  |  lambda  |   +0.00   |
----------------------------------------------------------------------------------
|  52  |  3   | 138.077  | 138.077  | 674.711  | 300.454  |  lambda  |   +0.00   |
----------------------------------------------------------------------------------
|  53  |  3   | 138.078  | 138.078  | 674.712  | 300.454  |  lambda  |   +0.00   |
----------------------------------------------------------------------------------
|  54  |  3   | 138.078  | 138.078  | 674.713  | 300.454  |  lambda  |   +0.00   |
----------------------------------------------------------------------------------

              | INCREMENTO DE CARGA |     CARGA TOTAL     |         PASSO        |
| CASO | ITER |  ATIVA   |  REATIVA |  ATIVA   |  REATIVA | VARIÁVEL | VALOR [%] |
----------------------------------------------------------------------------------
|  55  |  3   | 138.078  | 138.078  | 674.714  | 300.455  |  lambda  |   +0.00   |
----------------------------------------------------------------------------------
|  56  |  3   | 138.079  | 138.079  | 674.715  | 300.455  |  lambda  |   +0.00   |
----------------------------------------------------------------------------------
|  57  |  3   | 138.079  | 138.079  | 674.716  | 300.456  |  lambda  |   +0.00   |
----------------------------------------------------------------------------------
|  58  |  2   | 138.079  | 138.079  | 674.716  | 300.456  |  lambda  |   +0.00   |
----------------------------------------------------------------------------------
|  59  |  2   | 138.079  | 138.079  | 674.716  | 300.456  |  lambda  |   +0.00   |
----------------------------------------------------------------------------------

              | INCREMENTO DE CARGA |     CARGA TOTAL     |         PASSO        |
| CASO | ITER |  ATIVA   |  REATIVA |  ATIVA   |  REATIVA | VARIÁVEL | VALOR [%] |
----------------------------------------------------------------------------------
|  60  |  2   | 138.079  | 138.079  | 674.717  | 300.456  |  lambda  |   +0.00   |
----------------------------------------------------------------------------------
|  61  |  2   | 138.079  | 138.079  | 674.717  | 300.456  |  lambda  |   +0.00   |
----------------------------------------------------------------------------------
|  62  |  2   | 138.079  | 138.079  | 674.717  | 300.456  |  lambda  |   +0.00   |
----------------------------------------------------------------------------------
|  63  |  2   | 138.079  | 138.079  | 674.717  | 300.456  |  lambda  |   +0.00   |
----------------------------------------------------------------------------------
|  64  |  2   | 138.079  | 138.079  | 674.717  | 300.456  |  lambda  |   +0.00   |
----------------------------------------------------------------------------------

              | INCREMENTO DE CARGA |     CARGA TOTAL     |         PASSO        |
| CASO | ITER |  ATIVA   |  REATIVA |  ATIVA   |  REATIVA | VARIÁVEL | VALOR [%] |
----------------------------------------------------------------------------------
|  65  |  2   | 138.079  | 138.079  | 674.717  | 300.456  |  lambda  |   +0.00   |
----------------------------------------------------------------------------------
|  66  |  2   | 138.079  | 138.079  | 674.717  | 300.456  |  lambda  |   +0.00   |
----------------------------------------------------------------------------------
|  67  |  2   | 138.079  | 138.079  | 674.717  | 300.456  |  lambda  |   +0.00   |
----------------------------------------------------------------------------------
|  68  |  2   | 138.079  | 138.079  | 674.717  | 300.456  |  lambda  |   +0.00   |
----------------------------------------------------------------------------------
|  69  |  2   | 138.079  | 138.079  | 674.717  | 300.456  |  lambda  |   +0.00   |
----------------------------------------------------------------------------------

              | INCREMENTO DE CARGA |     CARGA TOTAL     |         PASSO        |
| CASO | ITER |  ATIVA   |  REATIVA |  ATIVA   |  REATIVA | VARIÁVEL | VALOR [%] |
----------------------------------------------------------------------------------
|  70  |  2   | 138.079  | 138.079  | 674.717  | 300.456  |  lambda  |   +0.00   |
----------------------------------------------------------------------------------
|  71  |  2   | 138.079  | 138.079  | 674.717  | 300.456  |  lambda  |   +0.00   |
----------------------------------------------------------------------------------
|  72  |  2   | 138.079  | 138.079  | 674.717  | 300.456  |  lambda  |   +0.00   |
----------------------------------------------------------------------------------
|  73  |  2   | 138.079  | 138.079  | 674.717  | 300.456  |  lambda  |   +0.00   |
----------------------------------------------------------------------------------
|  74  |  2   | 138.079  | 138.079  | 674.717  | 300.456  |  lambda  |   +0.00   |
----------------------------------------------------------------------------------



fim do relatório do sistema IEEE30-2